LAMMPS (24 Apr 2013)
# LAMMPS 2005 MD Simulation Parameters - Generated by XenoView
# Structure file "C:\Users\laflij\Dropbox\Xenoview\34m.lmp"
# Source force field file pcff_d.frc

# Define units and force field
units		real
atom_style	full
boundary	p p p
pair_style	lj/class2/coul/long 7 10
bond_style      class2
angle_style     class2
dihedral_style  class2
improper_style  class2
kspace_style	pppm 0.0001

pair_modify mix sixthpower

# Read system data
read_data	100cPE.data
  orthogonal box = (-100 -20 -20) to (100 20 20)
  12061 atoms
  8140 bonds
  4517 angles
  888 dihedrals
  397 impropers

# Energy minimization (polymer initially stretched)
#minimize 1.0e-16 1.0e-16 10000 100000

# Write initial structure out, as post relaxation
dump            icrd all custom 5 system.lammpstrj id mol type x y z ix iy iz
dump_modify     icrd sort id
run             1
PPPM initialization ...
  G vector (1/distance) = 0.251036
  grid = 72 20 20
  stencil order = 5
  estimated absolute RMS force accuracy = 0.0346421
  estimated relative force accuracy = 0.000104324
  3d grid and FFT values/proc = 52052 28800
Step Temp E_pair E_mol TotEng Press
0            0    -13283.27    5683.5304   -7599.7396   -4563.0449
Loop time of 0.0671859 on 1 procs (1 MPI x 1 OpenMP) for 1 steps with 12061 atoms

Pair  time (%) = 0.054424 (81.0052)
Bond  time (%) = 0.00230193 (3.42621)
Kspce time (%) = 0.010138 (15.0895)
Neigh time (%) = 0 (0)
Comm  time (%) = 0.000183105 (0.272536)
Outpt time (%) = 8.2016e-05 (0.122073)
Other time (%) = 5.67436e-05 (0.0844577)

FFT Gflps 3d (1d only) = 2.34407 4.4984

# Reset the timestep
undump          icrd
reset_timestep  0

# Timestep and Neighbour searching
timestep	1
neighbor	2.0 bin
neigh_modify	every 1 delay 0 check yes

# Computes
#compute rdf all rdf 100 1 1 1 2 2 2
#compute msd all msd com yes

# Fixes
fix		1 all shake 0.0001 20 0 b 3 a 4
fix		2 all npt temp 300.0 300.0 100.0 iso 1.0 1.0 100.0
#fix		 rdf all ave/time 1 500000 500000 c_rdf file rdf.xvg mode vector
#fix		 msd all ave/time 1 500000 500000 c_msd file msd.xvg mode vector

# Initial velocity
velocity	all create 300 432567 dist uniform

# Write out thermodynamic information
thermo_style    custom step temp press vol pe ke evdwl ecoul epair
thermo	        250

# Write out trajectory
dump            cxtc all xtc 250 traj-0.xtc

# Write out velocity
#dump 		 1 all custom 1 vel_npt.txt vx vy vz

# Checkpoint files
#restart        5000 state_cpt-*.data

# Final run command
run             5000
PPPM initialization ...
  G vector (1/distance) = 0.251036
  grid = 72 20 20
  stencil order = 5
  estimated absolute RMS force accuracy = 0.0346421
  estimated relative force accuracy = 0.000104324
  3d grid and FFT values/proc = 52052 28800
Step Temp Press Volume PotEng KinEng E_vdwl E_coul E_pair
0          300   -27750.222       320000    -7771.583    7279.1381   -5474.3428    176772.06    -13283.27
Averages over the last 11 of 21 rows, steps 2500 to 5000:
Temp Press Volume PotEng KinEng E_vdwl E_coul E_pair
300.856 9.37048 170933 -23435.4 7299.91 -6578.8 168439 -23923.7
Loop time of 497.283 on 1 procs (1 MPI x 1 OpenMP) for 5000 steps with 12061 atoms

Pair  time (%) = 332.841 (66.9318)
Bond  time (%) = 6.04799 (1.21621)
Kspce time (%) = 52.2708 (10.5113)
Neigh time (%) = 43.1535 (8.67785)
Comm  time (%) = 1.59785 (0.321317)
Outpt time (%) = 0.0236597 (0.00475779)
Other time (%) = 61.3489 (12.3368)

FFT Gflps 3d (1d only) = 2.33605 4.49889

write_restart   confout-0.data
PPPM initialization ...
  G vector (1/distance) = 0.257846
  grid = 60 18 18
  stencil order = 5
  estimated absolute RMS force accuracy = 0.0340089
  estimated relative force accuracy = 0.000102417
  3d grid and FFT values/proc = 40625 19440
