LAMMPS (24 Apr 2013)
# ----------------- Init Section -----------------
units           real
atom_style      full
boundary	p p p
pair_style	lj/cut/coul/long 9.8 9.8
pair_modify     mix arithmetic
kspace_style	pppm 1.0e-4
bond_style      harmonic
angle_style     harmonic
dihedral_style  none
improper_style  none

# ----------------- Atom Definition Section -----------------
read_data "cg25.data"
  orthogonal box = (0 0 0) to (85 37 37)
  7168 atoms
  4786 bonds
  2381 angles

# ----------------- Settings Section -----------------------
# Bond parameters
#           bond-type   k      	r0
# Water
bond_coeff   	1  	200.0   1.0
angle_coeff  	1 	200.0   109.47
# CG25
bond_coeff  	2       72.54   2.5

# LJ Interactions
#             atom1   atom2	epsilon	sigma
pair_coeff   	1 	1 	0.1553  3.166
pair_coeff   	1 	2 	0.0     0.0
pair_coeff 	1 	3 	0.1777 	3.783
pair_coeff   	2 	2 	0.0     0.0
pair_coeff   	2 	3 	0.0     0.0
pair_coeff 	3 	3 	0.2032	4.4

group spc type	1 2
7143 atoms in group spc

# ----------------- Minimize -----------------
# command  	etol    ftol   maxiter  maxeval
#minimize	1.0e-6	1.0e-8	200	2000

# ----------------- Run Section -----------------
# Write initial structure out
dump            icrd all custom 5 system.lammpstrj id mol type x y z ix iy iz
dump_modify     icrd sort id
run             1
PPPM initialization ...
  G vector (1/distance) = 0.263311
  grid = 36 20 20
  stencil order = 5
  estimated absolute RMS force accuracy = 0.0319958
  estimated relative force accuracy = 9.63544e-05
  3d grid and FFT values/proc = 29889 14400
Step Temp E_pair E_mol TotEng Press
0            0    -14358.79    219980.46    205621.67   -2785.7071
Loop time of 0.049649 on 1 procs (1 MPI x 1 OpenMP) for 1 steps with 7168 atoms

Pair  time (%) = 0.0434911 (87.5972)
Bond  time (%) = 0.00044179 (0.889826)
Kspce time (%) = 0.00549722 (11.0722)
Neigh time (%) = 0 (0)
Comm  time (%) = 0.000133991 (0.269877)
Outpt time (%) = 4.91142e-05 (0.0989229)
Other time (%) = 3.57628e-05 (0.0720312)

FFT Gflps 3d (1d only) = 2.40142 4.80607

# Reset the timestep
undump          icrd
reset_timestep  0

# Timestep and Neighbour searching
timestep	1.0
neighbor        2.0 bin
neigh_modify	delay 0 every 1 check yes

# Fixes
fix 		shake spc shake 0.0001 10 0 b 1 a 1
fix   		npt all npt temp 300.0 300.0 100.0 iso 1.0 1.0 10000.0

# Initial velocity
#velocity	all create 300 432567 dist uniform

# Write out thermodynamic information
thermo_style    custom step temp press vol pe ke evdwl ecoul epair
thermo	        250

# Write out trajectory
dump            cxtc all xtc 50 traj-0.xtc

# Write out velocity
#dump 		1 all custom 1 vel_npt.txt vx vy vz

# Checkpoint files
restart         5000 state_cpt-*.data

# Final run command
run             3500
PPPM initialization ...
  G vector (1/distance) = 0.263311
  grid = 36 20 20
  stencil order = 5
  estimated absolute RMS force accuracy = 0.0319958
  estimated relative force accuracy = 9.63544e-05
  3d grid and FFT values/proc = 29889 14400
Step Temp Press Volume PotEng KinEng E_vdwl E_coul E_pair
0            0   -166301.11       116365    -14358.79            0   -1669.4376    104984.27    -14358.79
Averages over the last 8 of 15 rows, steps 1750 to 3500:
Temp Press Volume PotEng KinEng E_vdwl E_coul E_pair
298.794 -663.887 112439 -21920.2 4262.64 3794.79 92604 -21921.3
Loop time of 174.384 on 1 procs (1 MPI x 1 OpenMP) for 3500 steps with 7168 atoms

Pair  time (%) = 121.698 (69.7871)
Bond  time (%) = 0.0128112 (0.00734654)
Kspce time (%) = 19.7376 (11.3185)
Neigh time (%) = 10.117 (5.80156)
Comm  time (%) = 0.551212 (0.316091)
Outpt time (%) = 0.0516689 (0.0296294)
Other time (%) = 22.2161 (12.7398)

FFT Gflps 3d (1d only) = 2.38922 4.8286

write_restart   confout-0.data
PPPM initialization ...
  G vector (1/distance) = 0.264664
  grid = 36 20 20
  stencil order = 5
  estimated absolute RMS force accuracy = 0.0305652
  estimated relative force accuracy = 9.20461e-05
  3d grid and FFT values/proc = 29889 14400
