LAMMPS (24 Apr 2013)
# LAMMPS 2005 MD Simulation Parameters - Generated by XenoView
# Structure file "C:\Users\laflij\Dropbox\Xenoview\34m.lmp"
# Source force field file pcff_d.frc

# Define units and force field
units		real
atom_style	full
boundary	p p p
pair_style	lj/class2/coul/long 7 10
bond_style      class2
angle_style     class2
dihedral_style  class2
improper_style  class2
kspace_style	pppm 0.0001

pair_modify mix sixthpower

# Read system data
read_data	100cPE.data
  orthogonal box = (-75 -20 -20) to (75 20 20)
  10337 atoms
  6992 bonds
  3950 angles
  900 dihedrals
  404 impropers

# Energy minimization (polymer initially stretched)
minimize 1.0e-16 1.0e-16 10000 100000
PPPM initialization ...
  G vector (1/distance) = 0.253944
  grid = 60 20 20
  stencil order = 5
  estimated absolute RMS force accuracy = 0.0318194
  estimated relative force accuracy = 9.58232e-05
  3d grid and FFT values/proc = 43940 24000
Step Temp E_pair E_mol TotEng Press
0            0   -12140.863   -125.20942   -12266.072   -3928.6603
Loop time of 840.805 on 1 procs (1 MPI x 1 OpenMP) for 3154 steps with 10337 atoms

Minimization stats:
  Stopping criterion = linesearch alpha is zero
  Energy initial, next-to-last, final =
  Force two-norm initial, final = 540.332 8.35509
  Force max component initial, final = 110.786 2.33501
  Final line search alpha, max atom move = 1.59541e-10 3.72529e-10
  Iterations, force evaluations = 3154 12085

Pair  time (%) = 704.702 (83.8128)
Bond  time (%) = 25.6814 (3.05439)
Kspce time (%) = 102.91 (12.2394)
Neigh time (%) = 2.63769 (0.313709)
Comm  time (%) = 2.14295 (0.254868)
Outpt time (%) = 0 (0)
Other time (%) = 2.73126 (0.324839)

FFT Gflps 3d (1d only) = 2.36384 4.60686

# Write initial structure out, as post relaxation
dump            icrd all custom 5 system.lammpstrj id mol type x y z ix iy iz
dump_modify     icrd sort id
run             1
PPPM initialization ...
  G vector (1/distance) = 0.253944
  grid = 60 20 20
  stencil order = 5
  estimated absolute RMS force accuracy = 0.0318194
  estimated relative force accuracy = 9.58232e-05
  3d grid and FFT values/proc = 43940 24000
Step Temp E_pair E_mol TotEng Press
3154            0   -36736.886    1156.0225   -35580.864   -1237.4449
Loop time of 0.0900202 on 1 procs (1 MPI x 1 OpenMP) for 1 steps with 10337 atoms

Pair  time (%) = 0.059906 (66.5473)
Bond  time (%) = 0.00219989 (2.44377)
Kspce time (%) = 0.00859904 (9.55235)
Neigh time (%) = 0 (0)
Comm  time (%) = 0.0001688 (0.187514)
Outpt time (%) = 0.019109 (21.2275)
Other time (%) = 3.74317e-05 (0.0415815)

FFT Gflps 3d (1d only) = 2.36901 4.61001

# Reset the timestep
undump          icrd
reset_timestep  0

# Timestep and Neighbour searching
timestep	.25
neighbor	2.0 bin
neigh_modify	every 1 delay 0 check yes

# Computes
#compute rdf all rdf 100 1 1 1 2 2 2
#compute msd all msd com yes

# Fixes
fix		1 all shake 0.0001 20 0 b 3 a 4
fix		2 all npt temp 300.0 300.0 100.0 iso 1.0 1.0 100.0
#fix		 rdf all ave/time 1 500000 500000 c_rdf file rdf.xvg mode vector
#fix		 msd all ave/time 1 500000 500000 c_msd file msd.xvg mode vector

# Initial velocity
velocity	all create 300 432567 dist uniform

# Write out thermodynamic information
thermo_style    custom step temp press vol pe ke evdwl ecoul epair
thermo	        50

# Write out trajectory
dump            cxtc all xtc 50 traj-0.xtc

# Write out velocity
#dump 		 1 all custom 1 vel_npt.txt vx vy vz

# Checkpoint files
#restart        5000 state_cpt-*.data

# Final run command
run             5000
PPPM initialization ...
  G vector (1/distance) = 0.253944
  grid = 60 20 20
  stencil order = 5
  estimated absolute RMS force accuracy = 0.0318194
  estimated relative force accuracy = 9.58232e-05
  3d grid and FFT values/proc = 43940 24000
Step Temp Press Volume PotEng KinEng E_vdwl E_coul E_pair
0          300   -684404.72       240000    -37150.55    6252.5472    6208.0894    117219.45   -36736.886
Averages over the last 51 of 101 rows, steps 2500 to 5000:
Temp Press Volume PotEng KinEng E_vdwl E_coul E_pair
278.977 -59.1243 170110 -29158.8 5814.38 2900.67 128361 -29023.4
Loop time of 373.574 on 1 procs (1 MPI x 1 OpenMP) for 5000 steps with 10337 atoms

Pair  time (%) = 266.466 (71.329)
Bond  time (%) = 6.05508 (1.62085)
Kspce time (%) = 43.0394 (11.521)
Neigh time (%) = 5.23764 (1.40204)
Comm  time (%) = 0.976144 (0.261299)
Outpt time (%) = 0.106198 (0.0284277)
Other time (%) = 51.6931 (13.8374)

FFT Gflps 3d (1d only) = 2.35156 4.53401

write_restart   confout-0.data
PPPM initialization ...
  G vector (1/distance) = 0.2545
  grid = 50 18 18
  stencil order = 5
  estimated absolute RMS force accuracy = 0.0379108
  estimated relative force accuracy = 0.000114167
  3d grid and FFT values/proc = 34375 16200
