LAMMPS (24 Apr 2013)
# ----------------- Init Section -------------------------------------------------------
units           real
atom_style      full
boundary	p p p
pair_style	lj/cut/coul/long 9.8 9.8
pair_modify     mix arithmetic
kspace_style	pppm 1.0e-4
bond_style      harmonic
angle_style     harmonic
dihedral_style  none
improper_style  none

# ----------------- Atom Definition Section --------------------------------------------
read_data "cg50-2.data"
  orthogonal box = (0 0 0) to (263 50 50)
  44200 atoms
  29498 bonds
  14700 angles

# ----------------- Settings Section ---------------------------------------------------
# Bond parameters
#           bond-type   k      	r0
# Water
bond_coeff   	1  	200.0   1.0
angle_coeff  	1 	200.0   109.47
# CG25
bond_coeff  	2       72.54   2.5

# LJ Interactions
#             atom1   atom2	epsilon	sigma
pair_coeff   	1 	1 	0.1553  3.166
pair_coeff   	1 	2 	0.0     0.0
pair_coeff 	1 	3 	0.1777 	3.783
pair_coeff   	2 	2 	0.0     0.0
pair_coeff   	2 	3 	0.0     0.0
pair_coeff 	3 	3 	0.2032	4.4

group spc type	1 2
44100 atoms in group spc

# ----------------- Minimize -----------------------------------------------------------
# command  	etol    ftol   maxiter  maxeval
minimize	1.0e-4	1.0e-6	100	1000
PPPM initialization ...
  G vector (1/distance) = 0.260523
  grid = 100 27 27
  stencil order = 5
  estimated absolute RMS force accuracy = 0.0385118
  estimated relative force accuracy = 0.000115977
  3d grid and FFT values/proc = 121380 72900
Step Temp E_pair E_mol TotEng Press
0            0   -61738.728    1358132.2    1296393.5    13145.175
Loop time of 59.7188 on 1 procs (1 MPI x 1 OpenMP) for 100 steps with 44200 atoms

Minimization stats:
  Stopping criterion = max iterations
  Energy initial, next-to-last, final =
  Force two-norm initial, final = 62879.9 684.445
  Force max component initial, final = 3297.3 38.5905
  Final line search alpha, max atom move = 0.00206156 0.0795568
  Iterations, force evaluations = 100 170

Pair  time (%) = 51.3564 (85.997)
Bond  time (%) = 0.419716 (0.702821)
Kspce time (%) = 6.30327 (10.5549)
Neigh time (%) = 1.29939 (2.17584)
Comm  time (%) = 0.0996692 (0.166898)
Outpt time (%) = 0.000256062 (0.000428779)
Other time (%) = 0.240124 (0.402092)

FFT Gflps 3d (1d only) = 1.60536 2.54024

# ----------------- Run it --------------------------------------------------------------
# Write initial structure out
dump            icrd all custom 5 system.lammpstrj id mol type x y z ix iy iz
dump_modify     icrd sort id
run             1
PPPM initialization ...
  G vector (1/distance) = 0.260523
  grid = 100 27 27
  stencil order = 5
  estimated absolute RMS force accuracy = 0.0385118
  estimated relative force accuracy = 0.000115977
  3d grid and FFT values/proc = 121380 72900
Step Temp E_pair E_mol TotEng Press
100            0   -95654.946    4517.9283   -91137.017     -9383.68
Loop time of 0.352203 on 1 procs (1 MPI x 1 OpenMP) for 1 steps with 44200 atoms

Pair  time (%) = 0.310506 (88.1611)
Bond  time (%) = 0.00291204 (0.826809)
Kspce time (%) = 0.0376849 (10.6998)
Neigh time (%) = 0 (0)
Comm  time (%) = 0.000650167 (0.1846)
Outpt time (%) = 0.000248909 (0.070672)
Other time (%) = 0.000200987 (0.0570656)

FFT Gflps 3d (1d only) = 1.60239 2.53857

# Reset the timestep
undump          icrd
reset_timestep  0

# Timestep and Neighbour searching
timestep	2.0
neighbor        2.0 bin
neigh_modify	delay 9 every 1 check yes

# Fixes
fix 		shake spc shake 0.0001 10 0 b 1 a 1
fix   		npt all npt temp 300.0 300.0 100.0 iso 1.0 1.0 1000.0

# Initial velocity
#velocity	all create 300 432567 dist uniform

# Write out thermodynamic information
thermo_style    custom step temp press vol pe ke evdwl ecoul epair
thermo	        250

# Write out trajectory
dump            cxtc all xtc 250 traj-0.xtc

# Write out velocity
#dump 		1 all custom 1 vel_npt.txt vx vy vz

# Final run command
run             100000
PPPM initialization ...
  G vector (1/distance) = 0.260523
  grid = 100 27 27
  stencil order = 5
  estimated absolute RMS force accuracy = 0.0385118
  estimated relative force accuracy = 0.000115977
  3d grid and FFT values/proc = 121380 72900
Step Temp Press Volume PotEng KinEng E_vdwl E_coul E_pair
0            0   -33269.962       657500   -95650.521            0   -5928.7369    631245.67   -95654.946
Averages over the last 201 of 401 rows, steps 50000 to 100000:
Temp Press Volume PotEng KinEng E_vdwl E_coul E_pair
300.15 14.9631 459608 -144943 26392.5 24698.3 553499 -144971
Loop time of 45225.4 on 1 procs (1 MPI x 1 OpenMP) for 100000 steps with 44200 atoms

Pair  time (%) = 32257.1 (71.3253)
Bond  time (%) = 0.954093 (0.00210964)
Kspce time (%) = 3816.83 (8.43957)
Neigh time (%) = 5561.8 (12.298)
Comm  time (%) = 109.113 (0.241264)
Outpt time (%) = 1.57878 (0.00349092)
Other time (%) = 3477.97 (7.6903)

FFT Gflps 3d (1d only) = 1.61036 2.54502

write_restart   confout-0.data
PPPM initialization ...
  G vector (1/distance) = 0.263252
  grid = 90 25 25
  stencil order = 5
  estimated absolute RMS force accuracy = 0.040162
  estimated relative force accuracy = 0.000120947
  3d grid and FFT values/proc = 97280 56250
